<?xml version="1.0" encoding="UTF-8"?>
<!DOCTYPE facilities SYSTEM "http://www.matsim.org/files/dtd/facilities_v1.dtd">

<facilities>
	<facility id="2076" x="4601069.317978636" y="5823414.0190927">
		<activity type="leisure">
		</activity>
	</facility>
	<facility id="10" x="4597517.126959191" y="5823176.614956086">
		<activity type="leisure">
		</activity>
	</facility>
	<facility id="4499" x="4603160.415223704" y="5820747.264687532">
		<activity type="leisure">
		</activity>
	</facility>
	<facility id="4855" x="4601069.317978636" y="5823414.0190927">
		<activity type="shopping">
		</activity>
	</facility>
	<facility id="588633373" x="4659376.339359377" y="5829351.129783085">
		<activity type="leisure">
		</activity>
		<activity type="shopping">
		</activity>
	</facility>
</facilities>